/*--------------------------------*- C++ -*----------------------------------*\
| =========                 |                                                 |
| \\      /  F ield         | OpenFOAM: The Open Source CFD Toolbox           |
|  \\    /   O peration     | Version:  2406                                  |
|   \\  /    A nd           | Website:  www.openfoam.com                      |
|    \\/     M anipulation  |                                                 |
\*---------------------------------------------------------------------------*/
FoamFile
{
    version     2.0;
    format      ascii;
    arch        "LSB;label=32;scalar=64";
    class       extendedFeatureEdgeMesh;
    location    "constant/extendedFeatureEdgeMesh";
    object      hull.extendedFeatureEdgeMesh;
}
// * * * * * * * * * * * * * * * * * * * * * * * * * * * * * * * * * * * * * //

// points
8((0 -10 0) (0 10 0) (100 10 10) (100 -10 10) (100 10 0) (100 -10 0) (0 -10 10) (0 10 10))
// edges

12
(
(0 1)
(1 4)
(4 5)
(5 0)
(0 6)
(7 1)
(6 7)
(7 2)
(2 3)
(3 6)
(5 3)
(2 4)
)

// concaveStart mixedStart nonFeatureStart
2 4 8
// internalStart flatStart openStart multipleStart
6 12 12 12
// normals

12
(
(0 0 -1)
(-1 0 0)
(0 1 0)
(0 0 -1)
(-1 0 0)
(0 -1 0)
(0 -1 0)
(-1 0 0)
(0 1 0)
(0 0 -1)
(0 0 -1)
(-1 0 0)
)

// normal volume types

12
(
0
0
0
0
0
0
0
0
0
0
0
0
)

// normalDirections

12
(
2(1 -1)
2(1 -1)
2{1}
2(1 -1)
2(1 -1)
2(1 -1)
2{1}
2{1}
2(1 -1)
2{1}
2{1}
2{1}
)

// edgeNormals

12
(
2(0 1)
2(0 2)
2(3 4)
2(3 5)
2(1 6)
2(7 8)
2(9 7)
2(9 8)
2(10 11)
2(10 6)
2(4 5)
2(11 2)
)

// featurePointNormals

8
(
3(0 1 5)
3(0 1 2)
3(9 8 11)
3(10 11 6)
3(0 2 4)
3(3 4 5)
3(1 6 9)
3(7 8 9)
)

// featurePointEdges

8
(
3(3 4 0)
3(0 5 1)
3(8 11 7)
3(8 10 9)
3(2 11 1)
3(2 10 3)
3(9 4 6)
3(6 5 7)
)

// regionEdges
0()


// ************************************************************************* //
