/*--------------------------------*- C++ -*----------------------------------*\
  =========                 |
  \\      /  F ield         | OpenFOAM: The Open Source CFD Toolbox
   \\    /   O peration     |
    \\  /    A nd           | Website:  www.openfoam.com
     \\/     M anipulation  |
\*---------------------------------------------------------------------------*/
FoamFile
{
    version     2.0;
    format      ascii;
    class       dictionary;
    object      blockMeshDict;
}
// * * * * * * * * * * * * * * * * * * * * * * * * * * * * * * * * * * * * * //

scale   1;

// Domain Bounds:
// x: -100 to 400
// y: -150 to 150
// z: -100 to 100

vertices
(
    (-100 -150 -100) // 0
    ( 400 -150 -100) // 1
    ( 400  150 -100) // 2
    (-100  150 -100) // 3
    (-100 -150  100) // 4
    ( 400 -150  100) // 5
    ( 400  150  100) // 6
    (-100  150  100) // 7
);

blocks
(
    hex (0 1 2 3 4 5 6 7) (40 20 20) simpleGrading (1 1 1)
);

edges
(
);

boundary
(
    inlet
    {
        type patch;
        faces
        (
            (0 4 7 3)
        );
    }
    outlet
    {
        type patch;
        faces
        (
            (1 2 6 5)
        );
    }
    bottom
    {
        type symmetryPlane;
        faces
        (
            (0 3 2 1)
        );
    }
    top
    {
        type patch;
        faces
        (
            (4 5 6 7)
        );
    }
    side_left
    {
        type symmetryPlane;
        faces
        (
            (0 1 5 4)
        );
    }
    side_right
    {
        type symmetryPlane;
        faces
        (
            (3 7 6 2)
        );
    }
);

mergePatchPairs
(
);

// ************************************************************************* //
