/*--------------------------------*- C++ -*----------------------------------*\
| =========                 |                                                 |
| \\      /  F ield         | OpenFOAM: The Open Source CFD Toolbox           |
|  \\    /   O peration     | Version:  2406                                  |
|   \\  /    A nd           | Website:  www.openfoam.com                      |
|    \\/     M anipulation  |                                                 |
\*---------------------------------------------------------------------------*/
FoamFile
{
    version     2.0;
    format      ascii;
    arch        "LSB;label=32;scalar=64";
    class       featureEdgeMesh;
    location    "constant/triSurface";
    object      hull.eMesh;
}
// * * * * * * * * * * * * * * * * * * * * * * * * * * * * * * * * * * * * * //


// points:

162
(
(0 -0.558191 4.75906)
(0 -0.512494 4.84868)
(0 -0.459986 4.91244)
(0 0.558191 4.75906)
(0 0.512494 4.84868)
(0 0.459986 4.91244)
(135 0 1.8)
(135 -0.631019 1.80003)
(0 -0.013104 2.09834e-05)
(0 1.65327e-14 0)
(135 -1.15569 1.80021)
(0 -0.0249573 0.000167867)
(135 -1.5915 1.80071)
(0 -0.0368508 0.000566551)
(135 -1.95596 1.80168)
(0 -0.0500753 0.00134294)
(135 -2.26657 1.80328)
(0 -0.0659217 0.00262292)
(135 -2.5406 1.8057)
(0 -0.0856703 0.00455379)
(135 -2.78835 1.81)
(0 -0.110257 0.00798921)
(135 -3.01167 1.81832)
(0 -0.1402 0.0146342)
(135 -3.21188 1.83286)
(0 -0.175996 0.0262443)
(135 -3.39034 1.85581)
(0 -0.21814 0.0445753)
(135 -3.54838 1.88937)
(0 -0.267125 0.0713828)
(135 -3.6873 1.93552)
(0 -0.323042 0.108729)
(135 -3.80804 1.99492)
(0 -0.383472 0.160569)
(135 -3.91144 2.0677)
(0 -0.44504 0.231578)
(135 -3.99832 2.15399)
(0 -0.504371 0.326433)
(135 -4.06951 2.25395)
(0 -0.558088 0.449811)
(135 -4.12584 2.36768)
(0 -0.602837 0.606367)
(135 -4.16858 2.49482)
(0 -0.636979 0.798794)
(135 -4.19979 2.63406)
(0 -0.661906 1.02633)
(135 -4.22159 2.784)
(0 -0.679319 1.28785)
(135 -4.23611 2.94323)
(0 -0.690917 1.58225)
(135 -4.24548 3.11038)
(0 -0.698401 1.90841)
(135 -4.25134 3.28379)
(0 -0.703324 2.26436)
(135 -4.25049 3.45947)
(0 -0.705795 2.63968)
(135 -4.23703 3.63205)
(0 -0.705107 3.01919)
(135 -4.205 3.79616)
(0 -0.70054 3.38764)
(135 -4.14844 3.94645)
(0 -0.691377 3.72976)
(135 -4.0614 4.07754)
(0 -0.6769 4.03034)
(135 -3.93919 4.18599)
(0 -0.656531 4.27926)
(135 -3.78035 4.27343)
(0 -0.630058 4.47995)
(135 -3.58397 4.34229)
(0 -0.597328 4.63802)
(135 -3.34915 4.39503)
(1.66 -1.1414 4.58873)
(135 -3.07497 4.43407)
(1.66 -1.04796 4.67308)
(135 -2.75991 4.46185)
(1.66 -0.940589 4.73309)
(135 -2.39248 4.48047)
(0 -0.398747 4.95517)
(135 -1.95284 4.49176)
(0 -0.325473 4.98109)
(135 -1.42093 4.49756)
(0 -0.236821 4.9944)
(135 -0.776669 4.49969)
(0 -0.129445 4.9993)
(135 0 4.5)
(0 1.65327e-14 5)
(135 0.631019 1.80003)
(0 0.013104 2.09834e-05)
(135 1.15569 1.80021)
(0 0.0249573 0.000167867)
(135 1.5915 1.80071)
(0 0.0368508 0.000566551)
(135 1.95596 1.80168)
(0 0.0500753 0.00134294)
(135 2.26657 1.80328)
(0 0.0659217 0.00262292)
(135 2.5406 1.8057)
(0 0.0856703 0.00455379)
(135 2.78835 1.81)
(0 0.110257 0.00798921)
(135 3.01167 1.81832)
(0 0.1402 0.0146342)
(135 3.21188 1.83286)
(0 0.175996 0.0262443)
(135 3.39034 1.85581)
(0 0.21814 0.0445753)
(135 3.54838 1.88937)
(0 0.267125 0.0713828)
(135 3.6873 1.93552)
(0 0.323042 0.108729)
(135 3.80804 1.99492)
(0 0.383472 0.160569)
(135 3.91144 2.0677)
(0 0.44504 0.231578)
(135 3.99832 2.15399)
(0 0.504371 0.326433)
(135 4.06951 2.25395)
(0 0.558088 0.449811)
(135 4.12584 2.36768)
(0 0.602837 0.606367)
(135 4.16858 2.49482)
(0 0.636979 0.798794)
(135 4.19979 2.63406)
(0 0.661906 1.02633)
(135 4.22159 2.784)
(0 0.679319 1.28785)
(135 4.23611 2.94323)
(0 0.690917 1.58225)
(135 4.24548 3.11038)
(0 0.698401 1.90841)
(135 4.25134 3.28379)
(0 0.703324 2.26436)
(135 4.25049 3.45947)
(0 0.705795 2.63968)
(135 4.23703 3.63205)
(0 0.705107 3.01919)
(135 4.205 3.79616)
(0 0.70054 3.38764)
(135 4.14844 3.94645)
(0 0.691377 3.72976)
(135 4.0614 4.07754)
(0 0.6769 4.03034)
(135 3.93919 4.18599)
(0 0.656531 4.27926)
(135 3.78035 4.27343)
(0 0.630058 4.47995)
(135 3.58397 4.34229)
(0 0.597328 4.63802)
(135 3.34915 4.39503)
(1.66 1.1414 4.58873)
(135 3.07497 4.43407)
(1.66 1.04796 4.67308)
(135 2.75991 4.46185)
(1.66 0.940589 4.73309)
(135 2.39248 4.48047)
(0 0.398747 4.95517)
(135 1.95284 4.49176)
(0 0.325473 4.98109)
(135 1.42093 4.49756)
(0 0.236821 4.9944)
(135 0.776669 4.49969)
(0 0.129445 4.9993)
)


// edges:

162
(
(6 7)
(8 9)
(7 10)
(11 8)
(10 12)
(13 11)
(12 14)
(15 13)
(14 16)
(17 15)
(16 18)
(19 17)
(18 20)
(21 19)
(20 22)
(23 21)
(22 24)
(25 23)
(24 26)
(27 25)
(26 28)
(29 27)
(28 30)
(31 29)
(30 32)
(33 31)
(32 34)
(35 33)
(34 36)
(37 35)
(36 38)
(39 37)
(38 40)
(41 39)
(40 42)
(43 41)
(42 44)
(45 43)
(44 46)
(47 45)
(46 48)
(49 47)
(48 50)
(51 49)
(50 52)
(53 51)
(52 54)
(55 53)
(54 56)
(57 55)
(56 58)
(59 57)
(58 60)
(61 59)
(60 62)
(63 61)
(62 64)
(65 63)
(64 66)
(67 65)
(66 68)
(69 67)
(68 70)
(71 0)
(0 69)
(70 72)
(73 1)
(1 0)
(72 74)
(75 2)
(2 1)
(74 76)
(77 2)
(76 78)
(79 77)
(78 80)
(81 79)
(80 82)
(83 81)
(82 84)
(85 83)
(86 6)
(9 87)
(88 86)
(87 89)
(90 88)
(89 91)
(92 90)
(91 93)
(94 92)
(93 95)
(96 94)
(95 97)
(98 96)
(97 99)
(100 98)
(99 101)
(102 100)
(101 103)
(104 102)
(103 105)
(106 104)
(105 107)
(108 106)
(107 109)
(110 108)
(109 111)
(112 110)
(111 113)
(114 112)
(113 115)
(116 114)
(115 117)
(118 116)
(117 119)
(120 118)
(119 121)
(122 120)
(121 123)
(124 122)
(123 125)
(126 124)
(125 127)
(128 126)
(127 129)
(130 128)
(129 131)
(132 130)
(131 133)
(134 132)
(133 135)
(136 134)
(135 137)
(138 136)
(137 139)
(140 138)
(139 141)
(142 140)
(141 143)
(144 142)
(143 145)
(146 144)
(145 147)
(148 146)
(3 149)
(147 3)
(150 148)
(4 151)
(3 4)
(152 150)
(5 153)
(4 5)
(154 152)
(5 155)
(156 154)
(155 157)
(158 156)
(157 159)
(160 158)
(159 161)
(84 160)
(161 85)
)

// * * * * * * * * * * * * * * * * * * * * * * * * * * * * * * * * * * * * * //


// ************************************************************************* //
