/*--------------------------------*- C++ -*----------------------------------*\
  =========                 |
  \\      /  F ield         | OpenFOAM: The Open Source CFD Toolbox
   \\    /   O peration     |
    \\  /    A nd           | Website:  www.openfoam.com
     \\/     M anipulation  |
\*---------------------------------------------------------------------------*/
FoamFile
{
    version     2.0;
    format      ascii;
    class       volScalarField;
    object      p_rgh;
}
// * * * * * * * * * * * * * * * * * * * * * * * * * * * * * * * * * * * * * //

dimensions      [1 -1 -2 0 0 0 0];

internalField   uniform 0;

boundaryField
{
    inlet
    {
        type            fixedFluxPressure;
        value           uniform 0;
    }

    outlet
    {
        type            fixedValue;
        value           uniform 0;
    }

    bottom
    {
        type            symmetryPlane;
    }

    top
    {
        // Inverse Barometer Effect: Spatially varying pressure
        // Gradient: 10 Pa/m along X
        type            codedFixedValue;
        name            inverseBarometerPressure;
        value           uniform 0;
        
        code
        #{
            const fvPatch& boundaryPatch = patch();
            const vectorField& Cf = boundaryPatch.Cf();
            scalarField& field = *this;

            forAll(Cf, faceI)
            {
                field[faceI] = 10.0 * Cf[faceI].x();
            }
        #};
    }

    side_left
    {
        type            symmetryPlane;
    }

    side_right
    {
        type            symmetryPlane;
    }
}

// ************************************************************************* //
